Version 4
SHEET 1 880 800
WIRE -112 64 -144 64
WIRE 0 64 -32 64
WIRE 160 64 0 64
WIRE 304 80 224 80
WIRE 400 80 304 80
WIRE 0 96 0 64
WIRE 160 96 96 96
WIRE 96 208 96 96
WIRE 160 208 96 208
WIRE 304 208 304 80
WIRE 304 208 240 208
WIRE 0 224 0 176
WIRE 96 240 96 208
WIRE 96 352 96 320
WIRE 96 352 -144 352
WIRE 64 544 64 512
WIRE 160 544 160 512
WIRE 64 656 64 624
WIRE 160 656 160 624
FLAG 64 512 Vref
FLAG 64 656 0
FLAG 160 656 0
FLAG 400 80 Vout
FLAG -144 64 Vin
FLAG 160 512 Vin
FLAG -144 352 Vref
FLAG 0 224 0
SYMBOL voltage 160 528 R0
SYMATTR InstName Vin
SYMATTR Value 0
SYMBOL res 256 192 R90
WINDOW 0 0 56 VBottom 2
WINDOW 3 32 56 VTop 2
SYMATTR InstName Rf
SYMATTR Value 10k
SYMBOL voltage 64 528 R0
SYMATTR InstName V1
SYMATTR Value 5
SYMBOL Opamps\\opamp 192 144 M180
SYMATTR InstName U1
SYMBOL res 80 224 R0
SYMATTR InstName Rg
SYMATTR Value 500k
SYMBOL res -16 48 R90
WINDOW 0 0 56 VBottom 2
WINDOW 3 32 56 VTop 2
SYMATTR InstName R1
SYMATTR Value 10k
SYMBOL res -16 80 R0
SYMATTR InstName R2
SYMATTR Value 9.615k
TEXT 32 784 Left 2 !.dc Vin -1 1 0.01
TEXT 32 752 Left 2 !.lib opamp.sub
